# This CIF file was created from an XTL file

data_zif4.cif

_cell_length_a          15.395
_cell_length_b          15.3073
_cell_length_c          18.426
_cell_angle_alpha       90
_cell_angle_beta        90
_cell_angle_gamma       90
_symmetry_space_group_name_H-M 'P 1'
_symmetry_Int_Tables_number 1

loop_
_atom_site_type_symbol
_atom_site_label
_atom_site_fract_x
_atom_site_fract_y
_atom_site_fract_z
c c_1   0.362800   0.550100   0.242900
c c_2   0.637200   0.050100   0.257100
c c_3   0.862800   0.949900   0.757100
c c_4   0.862800   0.550100   0.257100
c c_5   0.637200   0.449900   0.757100
c c_6   0.362800   0.949900   0.742900
c c_7   0.137200   0.050100   0.242900
c c_8   0.137200   0.449900   0.742900
c c_9   0.165100   0.567700   0.378800
c c_10   0.334900   0.432300   0.878800
c c_11   0.665100   0.932300   0.621200
c c_12   0.834900   0.067700   0.121200
c c_13   0.665100   0.567700   0.121200
c c_14   0.334900   0.067700   0.378800
c c_15   0.165100   0.932300   0.878800
c c_16   0.834900   0.432300   0.621200
c c_17   0.292000   0.438100   0.943000
c c_18   0.708000   0.938100   0.557000
c c_19   0.792000   0.061900   0.057000
c c_20   0.208000   0.938100   0.943000
c c_21   0.792000   0.438100   0.557000
c c_22   0.708000   0.561900   0.057000
c c_23   0.292000   0.061900   0.443000
c c_24   0.208000   0.561900   0.443000
c c_25   0.357700   0.766100   0.139800
c c_26   0.142300   0.233900   0.639800
c c_27   0.857700   0.733900   0.860200
c c_28   0.642300   0.266100   0.360200
c c_29   0.642300   0.233900   0.860200
c c_30   0.857700   0.766100   0.360200
c c_31   0.142300   0.266100   0.139800
c c_32   0.357700   0.733900   0.639800
c c_33   0.399100   0.613200   0.594300
c c_34   0.100900   0.113200   0.594300
c c_35   0.899100   0.613200   0.905700
c c_36   0.600900   0.386800   0.405700
c c_37   0.600900   0.113200   0.905700
c c_38   0.899100   0.886800   0.405700
c c_39   0.100900   0.386800   0.094300
c c_40   0.399100   0.886800   0.094300
c c_41   0.529200   0.158200   0.883700
c c_42   0.529200   0.341800   0.383700
c c_43   0.970800   0.658200   0.883700
c c_44   0.029200   0.158200   0.616300
c c_45   0.470800   0.841800   0.116300
c c_46   0.029200   0.341800   0.116300
c c_47   0.970800   0.841800   0.383700
c c_48   0.470800   0.658200   0.616300
c c_49   0.191100   0.513700   0.717000
c c_50   0.308900   0.013700   0.717000
c c_51   0.691100   0.513700   0.783000
c c_52   0.808900   0.486300   0.283000
c c_53   0.808900   0.013700   0.783000
c c_54   0.691100   0.986300   0.283000
c c_55   0.308900   0.486300   0.217000
c c_56   0.191100   0.986300   0.217000
c c_57   0.619800   0.677600   0.390700
c c_58   0.880200   0.322400   0.890700
c c_59   0.880200   0.177600   0.390700
c c_60   0.619800   0.822400   0.890700
c c_61   0.380200   0.322400   0.609300
c c_62   0.119800   0.677600   0.109300
c c_63   0.380200   0.177600   0.109300
c c_64   0.119800   0.822400   0.609300
c c_65   0.098100   0.737200   0.698200
c c_66   0.401800   0.262800   0.198200
c c_67   0.598200   0.762800   0.301800
c c_68   0.901800   0.237200   0.801800
c c_69   0.901800   0.262800   0.301800
c c_70   0.598200   0.737200   0.801800
c c_71   0.401800   0.237200   0.698200
c c_72   0.098100   0.762800   0.198200
c c_73   0.105900   0.654000   0.453600
c c_74   0.394100   0.346000   0.953600
c c_75   0.605900   0.846000   0.546400
c c_76   0.894100   0.154000   0.046400
c c_77   0.394100   0.154000   0.453600
c c_78   0.894100   0.346000   0.546400
c c_79   0.605900   0.654000   0.046400
c c_80   0.105900   0.846000   0.953600
c c_81   0.076000   0.865900   0.660900
c c_82   0.424000   0.134100   0.160900
c c_83   0.924000   0.365900   0.839100
c c_84   0.924000   0.134100   0.339100
c c_85   0.576000   0.865900   0.839100
c c_86   0.424000   0.365900   0.660900
c c_87   0.576000   0.634100   0.339100
c c_88   0.076000   0.634100   0.160900
c c_89   0.405300   0.987100   0.638400
c c_90   0.594700   0.487100   0.861600
c c_91   0.905300   0.512900   0.361600
c c_92   0.905300   0.987100   0.861600
c c_93   0.594700   0.012900   0.361600
c c_94   0.405300   0.512900   0.138400
c c_95   0.094700   0.487100   0.638400
c c_96   0.094700   0.012900   0.138400
h h_97   0.357900   0.577700   0.288300
h h_98   0.642100   0.077700   0.211700
h h_99   0.857900   0.922300   0.711700
h h_100   0.857900   0.577700   0.211700
h h_101   0.142100   0.422300   0.788300
h h_102   0.642100   0.422300   0.711700
h h_103   0.357900   0.922300   0.788300
h h_104   0.142100   0.077700   0.288300
h h_105   0.176400   0.533800   0.337300
h h_106   0.676400   0.966200   0.662700
h h_107   0.823600   0.033800   0.162700
h h_108   0.823600   0.466200   0.662700
h h_109   0.676400   0.533800   0.162700
h h_110   0.323600   0.033800   0.337300
h h_111   0.176400   0.966200   0.837300
h h_112   0.323600   0.466200   0.837300
h h_113   0.753200   0.977200   0.546000
h h_114   0.746800   0.022800   0.046000
h h_115   0.746800   0.477200   0.546000
h h_116   0.753200   0.522800   0.046000
h h_117   0.246800   0.022800   0.454000
h h_118   0.253200   0.522800   0.454000
h h_119   0.246800   0.477200   0.954000
h h_120   0.253200   0.977200   0.954000
h h_121   0.321900   0.719900   0.155200
h h_122   0.178100   0.280100   0.655200
h h_123   0.821900   0.780100   0.844800
h h_124   0.678100   0.280100   0.844800
h h_125   0.821900   0.719900   0.344800
h h_126   0.178100   0.219900   0.155200
h h_127   0.321900   0.780100   0.655200
h h_128   0.678100   0.219900   0.344800
h h_129   0.899300   0.558000   0.928000
h h_130   0.600700   0.442000   0.428000
h h_131   0.600700   0.058000   0.928000
h h_132   0.899300   0.942000   0.428000
h h_133   0.100700   0.442000   0.072000
h h_134   0.399300   0.942000   0.072000
h h_135   0.100700   0.058000   0.572000
h h_136   0.399300   0.558000   0.572000
h h_137   0.528700   0.639500   0.611900
h h_138   0.971300   0.360500   0.111900
h h_139   0.028700   0.860500   0.388100
h h_140   0.471300   0.139500   0.888100
h h_141   0.471300   0.360500   0.388100
h h_142   0.028700   0.639500   0.888100
h h_143   0.971300   0.139500   0.611900
h h_144   0.528700   0.860500   0.111900
h h_145   0.239100   0.537400   0.741700
h h_146   0.260900   0.462600   0.241700
h h_147   0.739100   0.962600   0.258300
h h_148   0.760900   0.037400   0.758300
h h_149   0.260900   0.037400   0.741700
h h_150   0.760900   0.462600   0.258300
h h_151   0.739100   0.537400   0.758300
h h_152   0.239100   0.962600   0.241700
h h_153   0.137200   0.845400   0.564300
h h_154   0.362800   0.154600   0.064300
h h_155   0.862800   0.345400   0.935700
h h_156   0.862800   0.154600   0.435700
h h_157   0.637200   0.845400   0.935700
h h_158   0.362800   0.345400   0.564300
h h_159   0.637200   0.654600   0.435700
h h_160   0.137200   0.654600   0.064300
h h_161   0.402300   0.187000   0.727600
h h_162   0.597700   0.687000   0.772400
h h_163   0.902300   0.313000   0.272400
h h_164   0.902300   0.187000   0.772400
h h_165   0.597700   0.813000   0.272400
h h_166   0.402300   0.313000   0.227600
h h_167   0.097700   0.687000   0.727600
h h_168   0.097700   0.813000   0.227600
h h_169   0.436000   0.310800   0.976400
h h_170   0.564000   0.810800   0.523600
h h_171   0.936000   0.189200   0.023600
h h_172   0.936000   0.310800   0.523600
h h_173   0.564000   0.689200   0.023600
h h_174   0.436000   0.189200   0.476400
h h_175   0.064000   0.810800   0.976400
h h_176   0.064000   0.689200   0.476400
h h_177   0.057800   0.575500   0.157900
h h_178   0.442200   0.424500   0.657900
h h_179   0.557800   0.924500   0.842100
h h_180   0.942200   0.075500   0.342100
h h_181   0.942200   0.424500   0.842100
h h_182   0.557800   0.575500   0.342100
h h_183   0.442200   0.075500   0.157900
h h_184   0.057800   0.924500   0.657900
h h_185   0.438100   0.510000   0.095400
h h_186   0.561900   0.010000   0.404600
h h_187   0.938100   0.990000   0.904600
h h_188   0.938100   0.510000   0.404600
h h_189   0.561900   0.490000   0.904600
h h_190   0.438100   0.990000   0.595400
h h_191   0.061900   0.010000   0.095400
h h_192   0.061900   0.490000   0.595400
n n_193   0.327000   0.661500   0.609900
n n_194   0.173000   0.338500   0.109900
n n_195   0.827000   0.838500   0.390100
n n_196   0.673000   0.161500   0.890100
n n_197   0.673000   0.338500   0.390100
n n_198   0.827000   0.661500   0.890100
n n_199   0.173000   0.161500   0.609900
n n_200   0.327000   0.838500   0.109900
n n_201   0.056200   0.264900   0.146000
n n_202   0.943800   0.764900   0.354000
n n_203   0.556200   0.235100   0.854000
n n_204   0.556200   0.264900   0.354000
n n_205   0.943800   0.735100   0.854000
n n_206   0.056200   0.235100   0.646000
n n_207   0.443800   0.764900   0.146000
n n_208   0.443800   0.735100   0.646000
n n_209   0.174200   0.622600   0.488500
n n_210   0.325800   0.377400   0.988500
n n_211   0.674200   0.877400   0.511500
n n_212   0.825800   0.122600   0.011500
n n_213   0.825800   0.377400   0.511500
n n_214   0.674200   0.622600   0.011500
n n_215   0.325800   0.122600   0.488500
n n_216   0.174200   0.877400   0.988500
n n_217   0.163700   0.536800   0.649900
n n_218   0.336300   0.463100   0.149900
n n_219   0.663700   0.963200   0.350100
n n_220   0.836300   0.036900   0.850100
n n_221   0.836300   0.463100   0.350100
n n_222   0.663700   0.536800   0.850100
n n_223   0.336300   0.036900   0.649900
n n_224   0.163700   0.963200   0.149900
n n_225   0.365100   0.260700   0.133200
n n_226   0.634900   0.760700   0.366800
n n_227   0.865100   0.239300   0.866800
n n_228   0.865100   0.260700   0.366800
n n_229   0.634900   0.739300   0.866800
n n_230   0.365100   0.239300   0.633200
n n_231   0.134900   0.760700   0.133200
n n_232   0.134900   0.739300   0.633200
n n_233   0.100900   0.632400   0.384700
n n_234   0.399100   0.367600   0.884700
n n_235   0.600900   0.867600   0.615300
n n_236   0.899100   0.132400   0.115300
n n_237   0.899100   0.367600   0.615300
n n_238   0.600900   0.632400   0.115300
n n_239   0.399100   0.132400   0.384700
n n_240   0.100900   0.867600   0.884700
n n_241   0.437900   0.188000   0.218100
n n_242   0.562100   0.688000   0.281900
n n_243   0.937900   0.312000   0.781900
n n_244   0.937900   0.188000   0.281900
n n_245   0.562100   0.812000   0.781900
n n_246   0.437900   0.312000   0.718100
n n_247   0.062100   0.688000   0.218100
n n_248   0.062100   0.812000   0.718100
n n_249   0.075500   0.432900   0.692300
n n_250   0.424500   0.567100   0.192300
n n_251   0.575600   0.067100   0.307700
n n_252   0.924400   0.932900   0.807700
n n_253   0.924400   0.567100   0.307700
n n_254   0.575600   0.432900   0.807700
n n_255   0.424500   0.932900   0.692300
n n_256   0.075500   0.067100   0.192300
zn zn_257   0.297900   0.360500   0.091700
zn zn_258   0.702100   0.860500   0.408300
zn zn_259   0.797900   0.139500   0.908300
zn zn_260   0.797900   0.360500   0.408300
zn zn_261   0.702100   0.639500   0.908300
zn zn_262   0.297900   0.139500   0.591700
zn zn_263   0.202200   0.860500   0.091700
zn zn_264   0.202200   0.639500   0.591700
zn zn_265   0.009600   0.836000   0.813700
zn zn_266   0.490400   0.164000   0.313700
zn zn_267   0.509600   0.664000   0.186300
zn zn_268   0.990400   0.336000   0.686300
zn zn_269   0.990400   0.164000   0.186300
zn zn_270   0.509600   0.836000   0.686300
zn zn_271   0.490400   0.336000   0.813700
zn zn_272   0.009600   0.664000   0.313700
